Header
  CHECK KEYWORDS Warn
  Mesh DB "." "."
  Include Path ""
  Results Directory ""
End

Simulation
  Max Output Level = 5
  Coordinate System = Cartesian 2D
  Simulation Type = Steady State
  Steady State Max Iterations = 1
  Output Intervals = 1
End

Constants
  Permittivity Of Vacuum = 8.854187817e-12
End

! ============================================================
! SOLVER 1: STAT CURRENT SOLVER
! ============================================================
Solver 1
  Exec Solver = Always
  Equation = "Stat Current"
  Procedure = "StatCurrentSolve" "StatCurrentSolver"
  Variable = Potential
  Variable DOFs = 1
  Calculate Volume Current = True
  Calculate Joule Heating = True
  Linear System Solver = Iterative
  Linear System Iterative Method = CG
  Linear System Preconditioning = ILU0
  Linear System Max Iterations = 1000
  Linear System Convergence Tolerance = 1.0e-10
  Linear System Abort Not Converged = True
  Linear System Residual Output = 1
End

! ============================================================
! SOLVER 2: VTU RESULT OUTPUT SOLVER
! ============================================================
Solver 2
  Exec Solver = After Simulation
  Equation = "ResultOutput"
  Procedure = "ResultOutputSolve" "ResultOutputSolver"
  Output File Name = "phenora_heterogeneous"
  Vtu Format = Logical True
  Save Geometry Ids = Logical True
  Vector Field 1 = String "Volume Current"
End

! ============================================================
! EQUATION
! ============================================================
Equation 1
  Name = "Electrical Conduction"
  Active Solvers(2) = 1 2
End

! ============================================================
! MATERIALS
! ============================================================
Material 1
  Name = "Medium"
  Electric Conductivity = 1.0
End

Material 2
  Name = "BiologicalInclusion"
  Electric Conductivity = 0.75
End

! ============================================================
! BODIES
! ============================================================
Body 1
  Name = "Medium"
  Target Bodies(1) = 1
  Equation = 1
  Material = 1
End

Body 2
  Name = "BiologicalInclusion"
  Target Bodies(1) = 2
  Equation = 1
  Material = 2
End

! ============================================================
! BOUNDARY CONDITIONS
! ============================================================
! Boundary 4: Left Electrode (1.0 V)
Boundary Condition 1
  Name = "Left Electrode"
  Target Boundaries(1) = 4
  Potential = 1.0
End

! Boundary 2: Right Electrode (0.0 V)
Boundary Condition 2
  Name = "Right Electrode"
  Target Boundaries(1) = 2
  Potential = 0.0
End

! Boundary 1: Bottom (Insulated natural BC)
Boundary Condition 3
  Name = "Bottom"
  Target Boundaries(1) = 1
End

! Boundary 3: Top (Insulated natural BC)
Boundary Condition 4
  Name = "Top"
  Target Boundaries(1) = 3
End

